version 3
run Experimentos-178-20260507-13:04:41-15632
attr configname Experimentos
attr datetime 20260507-13:04:41
attr datetimef 20260507-130441
attr experiment Experimentos
attr inifile TwoQueues.ini
attr iterationvars "$p=0.6, $q=0.2, $Y=30, $m=2"
attr iterationvarsd p=0.6/q=0.2/Y=30/m=2
attr iterationvarsf p=0.6,q=0.2,Y=30,m=2-
attr measurement "$p=0.6, $q=0.2, $Y=30, $m=2"
attr network TwoQueues
attr processid 15632
attr repetition 18
attr replication #18
attr resultdir results
attr runnumber 178
attr seedset 178
itervar Y 30
itervar m 2
itervar p 0.6
itervar q 0.2
config description "Barrido de parametros"
config **.source1.p 0.6
config **.source2.q 0.2
config **.serverWithMaintenance.Y 30
config **.serverWithMaintenance.m 2
config network TwoQueues
config cpu-time-limit 5000s
config real-time-limit 5000s
config sim-time-limit 5000s
config warmup-period 400s
config repeat 20
config **.source1.p 0.6
config **.source1.q 0.2
config **.source2.p 0.6
config **.source2.q 0.2
config **.serverWithMaintenance.Y 10
config **.serverWithMaintenance.m 2
config output-scalar-file results/Experimentos-p=0.6,q=0.2,Y=30,m=2--
config output-vector-file results/Experimentos-p=0.6,q=0.2,Y=30,m=2--
config **.delay1.vector-recording true
config **.delay2.vector-recording true
config **.throughput1.vector-recording true
config **.throughput2.vector-recording true
config **.queue1.qlen.vector-recording true
config **.queue2.qlen.vector-recording true

par TwoQueues.source1.out.channel typename "\"ned.IdealChannel\""
par TwoQueues.queue1.out.channel typename "\"ned.IdealChannel\""
par TwoQueues.server.out_queue.channel typename "\"ned.IdealChannel\""
par TwoQueues.server.out.channel typename "\"ned.IdealChannel\""
par TwoQueues.source2.out.channel typename "\"ned.IdealChannel\""
par TwoQueues.queue2.out.channel typename "\"ned.IdealChannel\""
par TwoQueues.serverWithMaintenance.out_queue.channel typename "\"ned.IdealChannel\""
par TwoQueues.serverWithMaintenance.out.channel typename "\"ned.IdealChannel\""
par TwoQueues.serverWithMaintenance typename "\"src.ServerWithMaintenance\""
par TwoQueues.serverWithMaintenance Y 30
par TwoQueues.serverWithMaintenance m 2
scalar TwoQueues.serverWithMaintenance throughputStats2:mean 1
attr recordingmode mean
attr source throughput2
attr title "Throughput Class 2, mean"
scalar TwoQueues.serverWithMaintenance residenceTime2:mean 1.1601272534464
attr recordingmode mean
attr source delay2
attr title "Residence Time Class 2, mean"
par TwoQueues.source2 typename "\"src.Source\""
par TwoQueues.source2 p 0.6
par TwoQueues.source2 q 0.2
par TwoQueues.source1 typename "\"src.Source\""
par TwoQueues.source1 p 0.6
par TwoQueues.source1 q 0.2
par TwoQueues.queue2 typename "\"src.Queue\""
scalar TwoQueues.queue2 queueLengthStats:timeavg 0.032854656222802
attr recordingmode timeavg
attr source qlen
attr title "Average Queue Length, timeavg"
par TwoQueues.queue1 typename "\"src.Queue\""
scalar TwoQueues.queue1 queueLengthStats:timeavg 1.2732608695652
attr recordingmode timeavg
attr source qlen
attr title "Average Queue Length, timeavg"
par TwoQueues.server typename "\"src.Server\""
scalar TwoQueues.server throughputStats1:mean 1
attr recordingmode mean
attr source throughput1
attr title "Throughput Class 1, mean"
scalar TwoQueues.server residenceTime1:mean 2.9023917259211
attr recordingmode mean
attr source delay1
attr title "Residence Time Class 1, mean"
par TwoQueues.sink typename "\"src.Sink\""
scalar TwoQueues.sink "Paquetes totales recibidos" 4372
par TwoQueues typename "\"TwoQueues\""

version 3
run Experimentos-179-20260507-13:04:41-15637
attr configname Experimentos
attr datetime 20260507-13:04:41
attr datetimef 20260507-130441
attr experiment Experimentos
attr inifile TwoQueues.ini
attr iterationvars "$p=0.6, $q=0.2, $Y=30, $m=2"
attr iterationvarsd p=0.6/q=0.2/Y=30/m=2
attr iterationvarsf p=0.6,q=0.2,Y=30,m=2-
attr measurement "$p=0.6, $q=0.2, $Y=30, $m=2"
attr network TwoQueues
attr processid 15637
attr repetition 19
attr replication #19
attr resultdir results
attr runnumber 179
attr seedset 179
itervar Y 30
itervar m 2
itervar p 0.6
itervar q 0.2
config description "Barrido de parametros"
config **.source1.p 0.6
config **.source2.q 0.2
config **.serverWithMaintenance.Y 30
config **.serverWithMaintenance.m 2
config network TwoQueues
config cpu-time-limit 5000s
config real-time-limit 5000s
config sim-time-limit 5000s
config warmup-period 400s
config repeat 20
config **.source1.p 0.6
config **.source1.q 0.2
config **.source2.p 0.6
config **.source2.q 0.2
config **.serverWithMaintenance.Y 10
config **.serverWithMaintenance.m 2
config output-scalar-file results/Experimentos-p=0.6,q=0.2,Y=30,m=2--
config output-vector-file results/Experimentos-p=0.6,q=0.2,Y=30,m=2--
config **.delay1.vector-recording true
config **.delay2.vector-recording true
config **.throughput1.vector-recording true
config **.throughput2.vector-recording true
config **.queue1.qlen.vector-recording true
config **.queue2.qlen.vector-recording true

par TwoQueues.source1.out.channel typename "\"ned.IdealChannel\""
par TwoQueues.queue1.out.channel typename "\"ned.IdealChannel\""
par TwoQueues.server.out_queue.channel typename "\"ned.IdealChannel\""
par TwoQueues.server.out.channel typename "\"ned.IdealChannel\""
par TwoQueues.source2.out.channel typename "\"ned.IdealChannel\""
par TwoQueues.queue2.out.channel typename "\"ned.IdealChannel\""
par TwoQueues.serverWithMaintenance.out_queue.channel typename "\"ned.IdealChannel\""
par TwoQueues.serverWithMaintenance.out.channel typename "\"ned.IdealChannel\""
par TwoQueues.serverWithMaintenance typename "\"src.ServerWithMaintenance\""
par TwoQueues.serverWithMaintenance Y 30
par TwoQueues.serverWithMaintenance m 2
scalar TwoQueues.serverWithMaintenance throughputStats2:mean 1
attr recordingmode mean
attr source throughput2
attr title "Throughput Class 2, mean"
scalar TwoQueues.serverWithMaintenance residenceTime2:mean 1.157437567861
attr recordingmode mean
attr source delay2
attr title "Residence Time Class 2, mean"
par TwoQueues.source2 typename "\"src.Source\""
par TwoQueues.source2 p 0.6
par TwoQueues.source2 q 0.2
par TwoQueues.source1 typename "\"src.Source\""
par TwoQueues.source1 p 0.6
par TwoQueues.source1 q 0.2
par TwoQueues.queue2 typename "\"src.Queue\""
scalar TwoQueues.queue2 queueLengthStats:timeavg 0.031583532999347
attr recordingmode timeavg
attr source qlen
attr title "Average Queue Length, timeavg"
par TwoQueues.queue1 typename "\"src.Queue\""
scalar TwoQueues.queue1 queueLengthStats:timeavg 1.2124836885602
attr recordingmode timeavg
attr source qlen
attr title "Average Queue Length, timeavg"
par TwoQueues.server typename "\"src.Server\""
scalar TwoQueues.server throughputStats1:mean 1
attr recordingmode mean
attr source throughput1
attr title "Throughput Class 1, mean"
scalar TwoQueues.server residenceTime1:mean 2.902630679877
attr recordingmode mean
attr source delay1
attr title "Residence Time Class 1, mean"
par TwoQueues.sink typename "\"src.Sink\""
scalar TwoQueues.sink "Paquetes totales recibidos" 4210
par TwoQueues typename "\"TwoQueues\""

